Circuit: * C:\Users\korvo\eda\designs\DRMTS_FunknerSchwarz\ideal_circuit\Delta_Sigma_ADC\spice_sims\sim3_switched_capacitor.asc

Error: unknown token in: "v(hold)>0[?]v(vdd):0"
Error: unknown token in: "v(in)>v(vdd)/2[?]v(vss):v(vdd)"
Error: unknown token in: "v(in)>v(vdd)/2[?]v(vss):v(vdd)"
WARNING: Less than two connections to node OUT.  This node is used by B:X3:1.
Per .tran options, skipping operating point for transient analysis.
Ignoring empty pin current: Ix(x4:vinm)
Ignoring empty pin current: Ix(x4:vinp)
Ignoring empty pin current: Ix(x4:vdd)
Ignoring empty pin current: Ix(x4:clock)
Ignoring empty pin current: Ix(x1:vdd)
Ignoring empty pin current: Ix(x1:vss)
Ignoring empty pin current: Ix(x1:in)
Ignoring empty pin current: Ix(x2:vinm)
Ignoring empty pin current: Ix(x2:vinp)
Ignoring empty pin current: Ix(x3:vdd)
Ignoring empty pin current: Ix(x3:vss)
Ignoring empty pin current: Ix(x3:in)

Date: Fri Dec 12 11:06:04 2025
Total elapsed time: 1.352 seconds.

tnom = 27
temp = 27
method = modified trap
totiter = 141832
traniter = 141832
tranpoints = 66667
accept = 50728
rejected = 15939
matrix size = 33
fillins = 9
solver = Normal
Matrix Compiler1: 1.21 KB object code size  0.5/0.1/[0.1]
Matrix Compiler2: 1.95 KB object code size  0.1/0.2/[0.1]

