LTspice 24.0.12 for Windows
Circuit: * C:\Users\eduar\Desktop\DRMS\Endgame\ideal\spice\sim3_switched_capacitor.asc
Start Time: Mon Feb  9 18:58:00 2026
solver = Normal
Maximum thread count: 16
tnom = 27
temp = 27
method = modified trap
WARNING: Less than two connections to node out.  This node is used by b:x3:1.
Direct Newton iteration for .op point succeeded.
Ignoring empty pin current: Ix(x4:vinm)
Ignoring empty pin current: Ix(x4:vinp)
Ignoring empty pin current: Ix(x4:vdd)
Ignoring empty pin current: Ix(x4:clock)
Ignoring empty pin current: Ix(x1:vdd)
Ignoring empty pin current: Ix(x1:vss)
Ignoring empty pin current: Ix(x1:in)
Ignoring empty pin current: Ix(x2:vinm)
Ignoring empty pin current: Ix(x2:vinp)
Ignoring empty pin current: Ix(x3:vdd)
Ignoring empty pin current: Ix(x3:vss)
Ignoring empty pin current: Ix(x3:in)
Ignoring empty pin current: Ix(x5:vinm)
Ignoring empty pin current: Ix(x5:vinp)
Ignoring empty pin current: Ix(x4:vinm)
Ignoring empty pin current: Ix(x4:vinp)
Ignoring empty pin current: Ix(x4:vdd)
Ignoring empty pin current: Ix(x4:clock)
Ignoring empty pin current: Ix(x1:vdd)
Ignoring empty pin current: Ix(x1:vss)
Ignoring empty pin current: Ix(x1:in)
Ignoring empty pin current: Ix(x2:vinm)
Ignoring empty pin current: Ix(x2:vinp)
Ignoring empty pin current: Ix(x3:vdd)
Ignoring empty pin current: Ix(x3:vss)
Ignoring empty pin current: Ix(x3:in)
Ignoring empty pin current: Ix(x5:vinm)
Ignoring empty pin current: Ix(x5:vinp)
Total elapsed time: 6.362 seconds.

