LTspice 24.0.12 for Windows
Circuit: * C:\Users\Eduard\workspace\DRMTS_FunknerSchwarz\ideal_circuit\spice\sim3_switched_capacitor.asc
Start Time: Thu Jan 15 14:58:25 2026
solver = Normal
Maximum thread count: 16
tnom = 27
temp = 27
method = trap
WARNING: Less than two connections to node out.  This node is used by b:x3:1.
Per .tran options, skipping operating point for transient analysis.
Ignoring empty pin current: Ix(x4:vinm)
Ignoring empty pin current: Ix(x4:vinp)
Ignoring empty pin current: Ix(x4:vdd)
Ignoring empty pin current: Ix(x4:clock)
Ignoring empty pin current: Ix(x1:vdd)
Ignoring empty pin current: Ix(x1:vss)
Ignoring empty pin current: Ix(x1:in)
Ignoring empty pin current: Ix(x2:vinm)
Ignoring empty pin current: Ix(x2:vinp)
Ignoring empty pin current: Ix(x3:vdd)
Ignoring empty pin current: Ix(x3:vss)
Ignoring empty pin current: Ix(x3:in)
Total elapsed time: 2.244 seconds.

